; SAP2000 Text File - Twin Towers Model
; Generated: 2026-02-02 16:55:47
; Units: N, mm, kg
;

TABLE:  "PROGRAM CONTROL"
   ProgramName=SAP2000   Version=24.0.0   ProgLevel=Advanced   LicenseOS=Yes   LicenseSC=Yes   LicenseBR=Yes   LicenseHT=No   CurrUnits="N, mm, C"   SteelCode=AISC360-16   ConcrCode=ACI318-19   AlumCode=AA-ASD2000   ColdCode=AISI-ASD96   BridgeCode=AASHTO2017

TABLE:  "ACTIVE DEGREES OF FREEDOM"
   UX=Yes   UY=Yes   UZ=Yes   RX=Yes   RY=Yes   RZ=Yes

TABLE:  "COORDINATE SYSTEMS"
   Name=GLOBAL   Type=Cartesian   X=0   Y=0   Z=0   AboutZ=0   AboutY=0   AboutX=0

TABLE:  "MATERIAL PROPERTIES 01 - GENERAL"
   Material=BALSA   Type=Other   Grade=""   SymType=Isotropic   TempDepend=No   Color=Yellow

TABLE:  "MATERIAL PROPERTIES 02 - BASIC MECHANICAL PROPERTIES"
   Material=BALSA   UnitWeight=1.569600E-03   UnitMass=1.600000E-07   E1=3500.0   G12=1346.1538461538462   U12=0.3   A1=1.17E-05

TABLE:  "FRAME SECTION PROPERTIES 01 - GENERAL"
   SectionName=BALSA6x6   Material=BALSA   Shape=Rectangular   t3=6.0   t2=6.0   Area=36.0   TorsConst=182.2176   I33=108.0000   I22=108.0000   AS2=30.0000   AS3=30.0000   S33Top=36.0000   S33Bot=36.0000   S22Top=36.0000   S22Bot=36.0000   Z33=54.0000   Z22=54.0000   R33=1.7321   R22=1.7321

TABLE:  "AREA SECTION PROPERTIES"
   Section=WALL2mm   Material=BALSA   MatAngle=0   AreaType=Shell   Type=Shell-Thin   DrillDOF=Yes   Thickness=2.0   BendThick=2.0   Color=Gray8Dark

TABLE:  "JOINT COORDINATES"
   Joint=J1   CoordSys=GLOBAL   CoordType=Cartesian   XorR=0.00   Y=0.00   Z=0.00   SpecialJt=No   GlobalX=0.00   GlobalY=0.00   GlobalZ=0.00
   Joint=J2   CoordSys=GLOBAL   CoordType=Cartesian   XorR=0.00   Y=40.00   Z=0.00   SpecialJt=No   GlobalX=0.00   GlobalY=40.00   GlobalZ=0.00
   Joint=J3   CoordSys=GLOBAL   CoordType=Cartesian   XorR=0.00   Y=74.00   Z=0.00   SpecialJt=No   GlobalX=0.00   GlobalY=74.00   GlobalZ=0.00
   Joint=J4   CoordSys=GLOBAL   CoordType=Cartesian   XorR=0.00   Y=86.00   Z=0.00   SpecialJt=No   GlobalX=0.00   GlobalY=86.00   GlobalZ=0.00
   Joint=J5   CoordSys=GLOBAL   CoordType=Cartesian   XorR=0.00   Y=120.00   Z=0.00   SpecialJt=No   GlobalX=0.00   GlobalY=120.00   GlobalZ=0.00
   Joint=J6   CoordSys=GLOBAL   CoordType=Cartesian   XorR=0.00   Y=160.00   Z=0.00   SpecialJt=No   GlobalX=0.00   GlobalY=160.00   GlobalZ=0.00
   Joint=J7   CoordSys=GLOBAL   CoordType=Cartesian   XorR=30.00   Y=0.00   Z=0.00   SpecialJt=No   GlobalX=30.00   GlobalY=0.00   GlobalZ=0.00
   Joint=J8   CoordSys=GLOBAL   CoordType=Cartesian   XorR=30.00   Y=40.00   Z=0.00   SpecialJt=No   GlobalX=30.00   GlobalY=40.00   GlobalZ=0.00
   Joint=J9   CoordSys=GLOBAL   CoordType=Cartesian   XorR=30.00   Y=74.00   Z=0.00   SpecialJt=No   GlobalX=30.00   GlobalY=74.00   GlobalZ=0.00
   Joint=J10   CoordSys=GLOBAL   CoordType=Cartesian   XorR=30.00   Y=86.00   Z=0.00   SpecialJt=No   GlobalX=30.00   GlobalY=86.00   GlobalZ=0.00
   Joint=J11   CoordSys=GLOBAL   CoordType=Cartesian   XorR=30.00   Y=120.00   Z=0.00   SpecialJt=No   GlobalX=30.00   GlobalY=120.00   GlobalZ=0.00
   Joint=J12   CoordSys=GLOBAL   CoordType=Cartesian   XorR=30.00   Y=160.00   Z=0.00   SpecialJt=No   GlobalX=30.00   GlobalY=160.00   GlobalZ=0.00
   Joint=J13   CoordSys=GLOBAL   CoordType=Cartesian   XorR=110.00   Y=0.00   Z=0.00   SpecialJt=No   GlobalX=110.00   GlobalY=0.00   GlobalZ=0.00
   Joint=J14   CoordSys=GLOBAL   CoordType=Cartesian   XorR=110.00   Y=40.00   Z=0.00   SpecialJt=No   GlobalX=110.00   GlobalY=40.00   GlobalZ=0.00
   Joint=J15   CoordSys=GLOBAL   CoordType=Cartesian   XorR=110.00   Y=74.00   Z=0.00   SpecialJt=No   GlobalX=110.00   GlobalY=74.00   GlobalZ=0.00
   Joint=J16   CoordSys=GLOBAL   CoordType=Cartesian   XorR=110.00   Y=86.00   Z=0.00   SpecialJt=No   GlobalX=110.00   GlobalY=86.00   GlobalZ=0.00
   Joint=J17   CoordSys=GLOBAL   CoordType=Cartesian   XorR=110.00   Y=120.00   Z=0.00   SpecialJt=No   GlobalX=110.00   GlobalY=120.00   GlobalZ=0.00
   Joint=J18   CoordSys=GLOBAL   CoordType=Cartesian   XorR=110.00   Y=160.00   Z=0.00   SpecialJt=No   GlobalX=110.00   GlobalY=160.00   GlobalZ=0.00
   Joint=J19   CoordSys=GLOBAL   CoordType=Cartesian   XorR=144.00   Y=0.00   Z=0.00   SpecialJt=No   GlobalX=144.00   GlobalY=0.00   GlobalZ=0.00
   Joint=J20   CoordSys=GLOBAL   CoordType=Cartesian   XorR=144.00   Y=40.00   Z=0.00   SpecialJt=No   GlobalX=144.00   GlobalY=40.00   GlobalZ=0.00
# ... 2492 like lines cut

TABLE:  "JOINT RESTRAINT ASSIGNMENTS"
   Joint=J1   U1=Yes   U2=Yes   U3=Yes   R1=Yes   R2=Yes   R3=Yes
   Joint=J2   U1=Yes   U2=Yes   U3=Yes   R1=Yes   R2=Yes   R3=Yes
   Joint=J3   U1=Yes   U2=Yes   U3=Yes   R1=Yes   R2=Yes   R3=Yes
   Joint=J4   U1=Yes   U2=Yes   U3=Yes   R1=Yes   R2=Yes   R3=Yes
   Joint=J5   U1=Yes   U2=Yes   U3=Yes   R1=Yes   R2=Yes   R3=Yes
   Joint=J6   U1=Yes   U2=Yes   U3=Yes   R1=Yes   R2=Yes   R3=Yes
   Joint=J7   U1=Yes   U2=Yes   U3=Yes   R1=Yes   R2=Yes   R3=Yes
   Joint=J8   U1=Yes   U2=Yes   U3=Yes   R1=Yes   R2=Yes   R3=Yes
   Joint=J9   U1=Yes   U2=Yes   U3=Yes   R1=Yes   R2=Yes   R3=Yes
   Joint=J10   U1=Yes   U2=Yes   U3=Yes   R1=Yes   R2=Yes   R3=Yes
   Joint=J11   U1=Yes   U2=Yes   U3=Yes   R1=Yes   R2=Yes   R3=Yes
   Joint=J12   U1=Yes   U2=Yes   U3=Yes   R1=Yes   R2=Yes   R3=Yes
   Joint=J13   U1=Yes   U2=Yes   U3=Yes   R1=Yes   R2=Yes   R3=Yes
   Joint=J14   U1=Yes   U2=Yes   U3=Yes   R1=Yes   R2=Yes   R3=Yes
   Joint=J15   U1=Yes   U2=Yes   U3=Yes   R1=Yes   R2=Yes   R3=Yes
   Joint=J16   U1=Yes   U2=Yes   U3=Yes   R1=Yes   R2=Yes   R3=Yes
   Joint=J17   U1=Yes   U2=Yes   U3=Yes   R1=Yes   R2=Yes   R3=Yes
   Joint=J18   U1=Yes   U2=Yes   U3=Yes   R1=Yes   R2=Yes   R3=Yes
   Joint=J19   U1=Yes   U2=Yes   U3=Yes   R1=Yes   R2=Yes   R3=Yes
   Joint=J20   U1=Yes   U2=Yes   U3=Yes   R1=Yes   R2=Yes   R3=Yes
# ... 76 like lines cut

TABLE:  "JOINT ADDED MASS ASSIGNMENTS"
   Joint=J145   CoordSys=GLOBAL   Mass1=0.016667   Mass2=0.016667   Mass3=0.016667
   Joint=J146   CoordSys=GLOBAL   Mass1=0.016667   Mass2=0.016667   Mass3=0.016667
   Joint=J147   CoordSys=GLOBAL   Mass1=0.016667   Mass2=0.016667   Mass3=0.016667
   Joint=J148   CoordSys=GLOBAL   Mass1=0.016667   Mass2=0.016667   Mass3=0.016667
   Joint=J149   CoordSys=GLOBAL   Mass1=0.016667   Mass2=0.016667   Mass3=0.016667
   Joint=J150   CoordSys=GLOBAL   Mass1=0.016667   Mass2=0.016667   Mass3=0.016667
   Joint=J151   CoordSys=GLOBAL   Mass1=0.016667   Mass2=0.016667   Mass3=0.016667
   Joint=J152   CoordSys=GLOBAL   Mass1=0.016667   Mass2=0.016667   Mass3=0.016667
   Joint=J153   CoordSys=GLOBAL   Mass1=0.016667   Mass2=0.016667   Mass3=0.016667
   Joint=J154   CoordSys=GLOBAL   Mass1=0.016667   Mass2=0.016667   Mass3=0.016667
   Joint=J155   CoordSys=GLOBAL   Mass1=0.016667   Mass2=0.016667   Mass3=0.016667
   Joint=J156   CoordSys=GLOBAL   Mass1=0.016667   Mass2=0.016667   Mass3=0.016667
   Joint=J157   CoordSys=GLOBAL   Mass1=0.016667   Mass2=0.016667   Mass3=0.016667
   Joint=J158   CoordSys=GLOBAL   Mass1=0.016667   Mass2=0.016667   Mass3=0.016667
   Joint=J159   CoordSys=GLOBAL   Mass1=0.016667   Mass2=0.016667   Mass3=0.016667
   Joint=J160   CoordSys=GLOBAL   Mass1=0.016667   Mass2=0.016667   Mass3=0.016667
   Joint=J161   CoordSys=GLOBAL   Mass1=0.016667   Mass2=0.016667   Mass3=0.016667
   Joint=J162   CoordSys=GLOBAL   Mass1=0.016667   Mass2=0.016667   Mass3=0.016667
   Joint=J163   CoordSys=GLOBAL   Mass1=0.016667   Mass2=0.016667   Mass3=0.016667
   Joint=J164   CoordSys=GLOBAL   Mass1=0.016667   Mass2=0.016667   Mass3=0.016667
# ... 852 like lines cut

TABLE:  "CONNECTIVITY - FRAME"
   Frame=F1   JointI=J1   JointJ=J49   IsCurved=No   GUID=
   Frame=F2   JointI=J2   JointJ=J50   IsCurved=No   GUID=
   Frame=F3   JointI=J3   JointJ=J51   IsCurved=No   GUID=
   Frame=F4   JointI=J4   JointJ=J52   IsCurved=No   GUID=
   Frame=F5   JointI=J5   JointJ=J53   IsCurved=No   GUID=
   Frame=F6   JointI=J6   JointJ=J54   IsCurved=No   GUID=
   Frame=F7   JointI=J7   JointJ=J55   IsCurved=No   GUID=
   Frame=F8   JointI=J8   JointJ=J56   IsCurved=No   GUID=
   Frame=F9   JointI=J9   JointJ=J57   IsCurved=No   GUID=
   Frame=F10   JointI=J10   JointJ=J58   IsCurved=No   GUID=
   Frame=F11   JointI=J11   JointJ=J59   IsCurved=No   GUID=
   Frame=F12   JointI=J12   JointJ=J60   IsCurved=No   GUID=
   Frame=F13   JointI=J13   JointJ=J61   IsCurved=No   GUID=
   Frame=F14   JointI=J14   JointJ=J62   IsCurved=No   GUID=
   Frame=F15   JointI=J15   JointJ=J63   IsCurved=No   GUID=
   Frame=F16   JointI=J16   JointJ=J64   IsCurved=No   GUID=
   Frame=F17   JointI=J17   JointJ=J65   IsCurved=No   GUID=
   Frame=F18   JointI=J18   JointJ=J66   IsCurved=No   GUID=
   Frame=F19   JointI=J19   JointJ=J67   IsCurved=No   GUID=
   Frame=F20   JointI=J20   JointJ=J68   IsCurved=No   GUID=
# ... 7406 like lines cut

TABLE:  "FRAME SECTION ASSIGNMENTS"
   Frame=F1   SectionType=Rectangular   AutoSelect=N.A.   AnalSect=BALSA6x6   DesignSect=BALSA6x6   MatProp=Default
   Frame=F2   SectionType=Rectangular   AutoSelect=N.A.   AnalSect=BALSA6x6   DesignSect=BALSA6x6   MatProp=Default
   Frame=F3   SectionType=Rectangular   AutoSelect=N.A.   AnalSect=BALSA6x6   DesignSect=BALSA6x6   MatProp=Default
   Frame=F4   SectionType=Rectangular   AutoSelect=N.A.   AnalSect=BALSA6x6   DesignSect=BALSA6x6   MatProp=Default
   Frame=F5   SectionType=Rectangular   AutoSelect=N.A.   AnalSect=BALSA6x6   DesignSect=BALSA6x6   MatProp=Default
   Frame=F6   SectionType=Rectangular   AutoSelect=N.A.   AnalSect=BALSA6x6   DesignSect=BALSA6x6   MatProp=Default
   Frame=F7   SectionType=Rectangular   AutoSelect=N.A.   AnalSect=BALSA6x6   DesignSect=BALSA6x6   MatProp=Default
   Frame=F8   SectionType=Rectangular   AutoSelect=N.A.   AnalSect=BALSA6x6   DesignSect=BALSA6x6   MatProp=Default
   Frame=F9   SectionType=Rectangular   AutoSelect=N.A.   AnalSect=BALSA6x6   DesignSect=BALSA6x6   MatProp=Default
   Frame=F10   SectionType=Rectangular   AutoSelect=N.A.   AnalSect=BALSA6x6   DesignSect=BALSA6x6   MatProp=Default
   Frame=F11   SectionType=Rectangular   AutoSelect=N.A.   AnalSect=BALSA6x6   DesignSect=BALSA6x6   MatProp=Default
   Frame=F12   SectionType=Rectangular   AutoSelect=N.A.   AnalSect=BALSA6x6   DesignSect=BALSA6x6   MatProp=Default
   Frame=F13   SectionType=Rectangular   AutoSelect=N.A.   AnalSect=BALSA6x6   DesignSect=BALSA6x6   MatProp=Default
   Frame=F14   SectionType=Rectangular   AutoSelect=N.A.   AnalSect=BALSA6x6   DesignSect=BALSA6x6   MatProp=Default
   Frame=F15   SectionType=Rectangular   AutoSelect=N.A.   AnalSect=BALSA6x6   DesignSect=BALSA6x6   MatProp=Default
   Frame=F16   SectionType=Rectangular   AutoSelect=N.A.   AnalSect=BALSA6x6   DesignSect=BALSA6x6   MatProp=Default
   Frame=F17   SectionType=Rectangular   AutoSelect=N.A.   AnalSect=BALSA6x6   DesignSect=BALSA6x6   MatProp=Default
   Frame=F18   SectionType=Rectangular   AutoSelect=N.A.   AnalSect=BALSA6x6   DesignSect=BALSA6x6   MatProp=Default
   Frame=F19   SectionType=Rectangular   AutoSelect=N.A.   AnalSect=BALSA6x6   DesignSect=BALSA6x6   MatProp=Default
   Frame=F20   SectionType=Rectangular   AutoSelect=N.A.   AnalSect=BALSA6x6   DesignSect=BALSA6x6   MatProp=Default
# ... 7406 like lines cut

TABLE:  "FRAME RELEASE ASSIGNMENTS 1 - GENERAL"
   Frame=F131   PI=No   V2I=No   V3I=No   TI=No   M2I=Yes   M3I=Yes   PJ=No   V2J=No   V3J=No   TJ=No   M2J=Yes   M3J=Yes   PartialFix=No
   Frame=F132   PI=No   V2I=No   V3I=No   TI=No   M2I=Yes   M3I=Yes   PJ=No   V2J=No   V3J=No   TJ=No   M2J=Yes   M3J=Yes   PartialFix=No
   Frame=F133   PI=No   V2I=No   V3I=No   TI=No   M2I=Yes   M3I=Yes   PJ=No   V2J=No   V3J=No   TJ=No   M2J=Yes   M3J=Yes   PartialFix=No
   Frame=F134   PI=No   V2I=No   V3I=No   TI=No   M2I=Yes   M3I=Yes   PJ=No   V2J=No   V3J=No   TJ=No   M2J=Yes   M3J=Yes   PartialFix=No
   Frame=F135   PI=No   V2I=No   V3I=No   TI=No   M2I=Yes   M3I=Yes   PJ=No   V2J=No   V3J=No   TJ=No   M2J=Yes   M3J=Yes   PartialFix=No
   Frame=F136   PI=No   V2I=No   V3I=No   TI=No   M2I=Yes   M3I=Yes   PJ=No   V2J=No   V3J=No   TJ=No   M2J=Yes   M3J=Yes   PartialFix=No
   Frame=F137   PI=No   V2I=No   V3I=No   TI=No   M2I=Yes   M3I=Yes   PJ=No   V2J=No   V3J=No   TJ=No   M2J=Yes   M3J=Yes   PartialFix=No
   Frame=F138   PI=No   V2I=No   V3I=No   TI=No   M2I=Yes   M3I=Yes   PJ=No   V2J=No   V3J=No   TJ=No   M2J=Yes   M3J=Yes   PartialFix=No
   Frame=F139   PI=No   V2I=No   V3I=No   TI=No   M2I=Yes   M3I=Yes   PJ=No   V2J=No   V3J=No   TJ=No   M2J=Yes   M3J=Yes   PartialFix=No
   Frame=F140   PI=No   V2I=No   V3I=No   TI=No   M2I=Yes   M3I=Yes   PJ=No   V2J=No   V3J=No   TJ=No   M2J=Yes   M3J=Yes   PartialFix=No
   Frame=F141   PI=No   V2I=No   V3I=No   TI=No   M2I=Yes   M3I=Yes   PJ=No   V2J=No   V3J=No   TJ=No   M2J=Yes   M3J=Yes   PartialFix=No
   Frame=F142   PI=No   V2I=No   V3I=No   TI=No   M2I=Yes   M3I=Yes   PJ=No   V2J=No   V3J=No   TJ=No   M2J=Yes   M3J=Yes   PartialFix=No
   Frame=F143   PI=No   V2I=No   V3I=No   TI=No   M2I=Yes   M3I=Yes   PJ=No   V2J=No   V3J=No   TJ=No   M2J=Yes   M3J=Yes   PartialFix=No
   Frame=F144   PI=No   V2I=No   V3I=No   TI=No   M2I=Yes   M3I=Yes   PJ=No   V2J=No   V3J=No   TJ=No   M2J=Yes   M3J=Yes   PartialFix=No
   Frame=F145   PI=No   V2I=No   V3I=No   TI=No   M2I=Yes   M3I=Yes   PJ=No   V2J=No   V3J=No   TJ=No   M2J=Yes   M3J=Yes   PartialFix=No
   Frame=F146   PI=No   V2I=No   V3I=No   TI=No   M2I=Yes   M3I=Yes   PJ=No   V2J=No   V3J=No   TJ=No   M2J=Yes   M3J=Yes   PartialFix=No
   Frame=F147   PI=No   V2I=No   V3I=No   TI=No   M2I=Yes   M3I=Yes   PJ=No   V2J=No   V3J=No   TJ=No   M2J=Yes   M3J=Yes   PartialFix=No
   Frame=F148   PI=No   V2I=No   V3I=No   TI=No   M2I=Yes   M3I=Yes   PJ=No   V2J=No   V3J=No   TJ=No   M2J=Yes   M3J=Yes   PartialFix=No
   Frame=F149   PI=No   V2I=No   V3I=No   TI=No   M2I=Yes   M3I=Yes   PJ=No   V2J=No   V3J=No   TJ=No   M2J=Yes   M3J=Yes   PartialFix=No
   Frame=F150   PI=No   V2I=No   V3I=No   TI=No   M2I=Yes   M3I=Yes   PJ=No   V2J=No   V3J=No   TJ=No   M2J=Yes   M3J=Yes   PartialFix=No
# ... 694 like lines cut

TABLE:  "CONNECTIVITY - AREA"
   Area=A7427   NumJoints=2   Joint1=J1122   Joint2=J2461   GUID=
   Area=A7428   NumJoints=2   Joint1=J2365   Joint2=J1218   GUID=
   Area=A7429   NumJoints=2   Joint1=J1140   Joint2=J2479   GUID=
   Area=A7430   NumJoints=2   Joint1=J2383   Joint2=J1236   GUID=

TABLE:  "LOAD PATTERN DEFINITIONS"
   LoadPat=DEAD   DesignType=Dead   SelfWtMult=1
   LoadPat=MODAL   DesignType=Other   SelfWtMult=0

TABLE:  "CASE - MODAL 1 - GENERAL"
   Case=MODAL   ModeType=Eigen   MaxNumModes=12   MinNumModes=1   EigenShift=0   EigenCutoff=0   EigenTol=1E-09   AutoShift=Yes

TABLE:  "CASE - MODAL 2 - LOAD ASSIGNMENTS"
   Case=MODAL   LoadType="Load pattern"   LoadName=DEAD   LoadSF=0   Type=Loads

END TABLE DATA
